$# LS-DYNA Keyword file created by LS-PrePost(R) V4.8.20 - 22Sep2021
$# Created on Mar-29-2022 (15:50:16)
*KEYWORD
*ELEMENT_SOLID
$#   eid     pid      n1      n2      n3      n4      n5      n6      n7      n8
       1       1    1306     645    2585    2726     636     636    2584    2584
       2       1    2726    2585    2575    2694    2584    2584    2574    2574
       3       1    2694    2575    2573    2687    2574    2574    2571    2571
       4       1    2687    2573    2572    2684    2571    2571    2570    2570
       5       1    1262    1306    2726    2730       8       8      29      29
       6       1    2730    2726    2694    2704      29      29      31      31
       7       1    2704    2694    2687    2700      31      31      33      33
       8       1    2700    2687    2684    2697      33      33      35      35
       9       1       8      12      36      29    1262    1262    2730    2730
      10       1      29      36      37      31    2730    2730    2704    2704
      11       1      31      37      38      33    2704    2704    2700    2700
      12       1      33      38      39      35    2700    2700    2697    2697
      13       1       8     636    2584      29     605     605    2581    2581
      14       1      29    2584    2574      31    2581    2581    2563    2563
      15       1      31    2574    2571      33    2563    2563    2560    2560
      16       1      33    2571    2570      35    2560    2560    2559    2559
      17       1     636       8      29    2584    1306    1306    2726    2726
      18       1    2584      29      31    2574    2726    2726    2694    2694
      19       1    2574      31      33    2571    2694    2694    2687    2687
      20       1    2571      33      35    2570    2687    2687    2684    2684
$ ... 236 like lines cut
*NODE
$#   nid               x               y               z      tc      rc  
       8        -442.984         680.266         434.813       0       0
      12        -443.072         679.113         434.529       0       0
      13        -444.081         679.582         434.583       0       0
      29        -443.297         680.098         429.957       0       0
      31        -443.448         680.041         425.075       0       0
      33        -443.552         680.006         420.174       0       0
      35        -443.634         679.985         415.149       0       0
      36        -443.306         679.157         429.734       0       0
      37        -443.443          679.23         424.922       0       0
      38        -443.542         679.312         420.093       0       0
      39         -443.62         679.414         415.148       0       0
      44        -444.139          679.57         429.774       0       0
      45        -444.152         679.605         424.948       0       0
      46        -444.145          679.65         420.106       0       0
      47          -444.1         679.697         415.149       0       0
      83         -443.02         679.638         436.995       0       0
      87        -443.042         678.637         436.821       0       0
      88        -443.918         679.011         436.843       0       0
     101        -443.058         679.795          436.45       0       0
     103        -443.063         679.954         435.904       0       0
$ ... 34 like lines cut
*INCLUDE_TRANSFORM
Ibeam_hexmesh_smooth_gref_lev0_BEXT.txt
300,0,3,0,0



*PART
Prism part
1,1,1
*SECTION_SOLID
1,15
*MAT_ELASTIC
1,1.,50,0.3
*PART
BEXT part
3,3,3
*SECTION_SOLID
3,201
*MAT_ELASTIC
3,1.,50,0.3
*CONTROL_IMPLICIT_GENERAL
1,1.
*CONTROL_IMPLICIT_EIGENVALUE
20
*END
