$# LS-DYNA Keyword file created by LS-PrePost(R) V4.8.20 - 22Sep2021
$# Created on Mar-29-2022 (15:50:16)
*KEYWORD
*ELEMENT_SOLID
$#   eid     pid      n1      n2      n3      n4      n5      n6      n7      n8
       1       1    2765    1097    1091    2757    1095    1095    1089    1089
       2       1    2757    1091    1039    2710    1089    1089    1037    1037
       3       1    2710    1039    1031    2697    1037    1037    1027    1027
       4       1    2697    1031    1029    2694    1027    1027    1025    1025
       5       1    2768    2765    2757    2760       8       8      29      29
       6       1    2760    2757    2710    2713      29      29      31      31
       7       1    2713    2710    2697    2702      31      31      33      33
       8       1    2702    2697    2694    2700      33      33      35      35
       9       1       8      12      36      29    2768    2768    2760    2760
      10       1      29      36      37      31    2760    2760    2713    2713
      11       1      31      37      38      33    2713    2713    2702    2702
      12       1      33      38      39      35    2702    2702    2700    2700
      13       1       8    1095    1089      29    1084    1084    1076    1076
      14       1      29    1089    1037      31    1076    1076    1020    1020
      15       1      31    1037    1027      33    1020    1020    1009    1009
      16       1      33    1027    1025      35    1009    1009    1007    1007
      17       1    1095       8      29    1089    2765    2765    2757    2757
      18       1    1089      29      31    1037    2757    2757    2710    2710
      19       1    1037      31      33    1027    2710    2710    2697    2697
      20       1    1027      33      35    1025    2697    2697    2694    2694
$ ... 556 like lines cut
*NODE
$#   nid               x               y               z      tc      rc  
       8        -405.177         614.996         582.945       0       0
      12        -405.233         614.519         582.607       0       0
      13        -405.229         614.552         583.674       0       0
      29        -406.664         615.071         583.035       0       0
      31        -408.144         615.108         583.101       0       0
      33        -409.638         615.096         583.162       0       0
      35        -411.193         614.995         583.218       0       0
      36        -406.723         614.558          582.69       0       0
      37        -408.199         614.574          582.78       0       0
      38         -409.69         614.564         582.884       0       0
      39        -411.259         614.529           583.0       0       0
      44        -406.709         614.622         583.715       0       0
      45        -408.177         614.675         583.746       0       0
      46        -409.663         614.703         583.779       0       0
      47        -411.223           614.7         583.816       0       0
      83        -404.713         620.759         584.162       0       0
      87        -404.731         620.746         584.793       0       0
      88        -404.665         621.302         584.399       0       0
     104        -406.158         620.929         584.197       0       0
     106        -407.611         621.111         584.233       0       0
$ ... 188 like lines cut
*INCLUDE_TRANSFORM
grid_hexmesh_smooth_gref_lev0_BEXT.txt
675,0,3,0,0



*PART
Prism part
1,1,1
*SECTION_SOLID
1,15
*MAT_ELASTIC
1,1.,50,0.3
*PART
BEXT part
3,3,3
*SECTION_SOLID
3,201
*MAT_ELASTIC
3,1.,50,0.3
*CONTROL_IMPLICIT_GENERAL
1,1.
*CONTROL_IMPLICIT_EIGENVALUE
20
*END
